# simulations/configs/flow1_test.ini
[General]
network = networks.SimpleTestNetwork
sim-time-limit = 100ms
cmdenv-express-mode = true
cmdenv-autoflush = true

# Output configuration
result-dir = ../results
output-vector-file = ${resultdir}/${configname}.vec
output-scalar-file = ${resultdir}/${configname}.sca

# Statistic recording
**.scalar-recording = true
**.vector-recording = true

# Scheduler parameters
**.tdmaScheduler.hyperperiod = 100ms
**.tdmaScheduler.datarate = 1Gbps

# Switch parameters
**.switch*.switchingDelay = 5us
**.switch*.numPorts = 4

# Flow 1: LD1 → CU
**.LD1.senderApp[0].flowId = "flow1_LD1"
**.LD1.senderApp[0].srcAddr = "00:00:00:00:00:03"
**.LD1.senderApp[0].dstAddr = "00:00:00:00:00:07"
**.LD1.senderApp[0].payloadSize = 1300B
**.LD1.senderApp[0].burstSize = 1

# Flow 1: LD2 → CU
**.LD2.senderApp[0].flowId = "flow1_LD2"
**.LD2.senderApp[0].srcAddr = "00:00:00:00:00:0A"
**.LD2.senderApp[0].dstAddr = "00:00:00:00:00:07"
**.LD2.senderApp[0].payloadSize = 1300B
**.LD2.senderApp[0].burstSize = 1

# CU receiver configuration
**.CU.receiverApp[0].flowId = ""  # Accetta tutti i flussi (stringa vuota)

# Metrics to collect
**.receiverApp[*].e2eDelay.vector-recording = true
**.receiverApp[*].jitter.vector-recording = true
**.receiverApp[*].throughput.vector-recording = true